19
Properties=species:S:1:pos:R:3 pbc="F F F"
N        1.76273680       0.78343290      -0.74746490
C        0.95673424       0.25067726       0.37332928
C        0.31030291      -1.14483702       0.21245241
C       -0.38609260      -1.01767540      -1.15537477
C       -1.04337132       0.42780626      -0.97777015
C       -0.49641773       0.64392060       0.38327277
O       -0.85851687       1.82439935       1.15685439
C       -0.82467437      -0.68725795       1.10563755
H        2.67626810       0.24003981      -0.74951822
H        2.00961304       1.75966895      -0.57815140
H        1.52924240       0.27410740       1.33135724
H        0.81320554      -2.07898688       0.54443610
H       -0.92139208      -1.84615815      -1.36063313
H        0.20847994      -1.24998593      -1.95044529
H       -2.13184905       0.33919045      -1.04539192
H       -0.74374658       1.15867221      -1.68907368
H       -0.47436157       1.82114148       2.13726878
H       -0.43167228      -0.86339736       2.21293759
H       -1.89196837      -1.10113728       1.08243322
