19
Properties=species:S:1:pos:R:3 pbc="F F F"
C        2.80369544      -0.54254454       0.04335992
O        1.40025544      -0.62831724      -0.41325119
C        0.47397524       0.37657225      -0.16534992
C        0.91426682       1.40178382       0.47497886
C       -0.93265176       0.21707472      -0.52099377
C       -1.46062696       1.25481224      -1.26501775
C       -1.68160164      -1.01360202      -0.15987891
N       -2.19069695      -0.77258945       1.41447401
H        2.77427554      -0.88393068       1.04303300
H        3.32085776       0.33863002      -0.07380274
H        3.35406113      -1.25352478      -0.54848742
H        1.97529185       1.47242630       0.69584423
H        0.22658575       2.14819002       0.61075032
H       -2.45165253       1.35690784      -1.76666903
H       -0.77015156       2.14643264      -1.63071871
H       -0.87767088      -1.99758637      -0.12854671
H       -2.49459767      -1.14756370      -1.01851344
H       -2.76638889      -1.67862082       1.43916404
H       -1.22598565      -0.53049278       1.92549324
