18
Properties=species:S:1:pos:R:3 pbc="F F F"
C       -2.77852678       0.70599097      -0.80869311
O       -1.55144095      -0.68505818      -0.34213179
C       -1.13477278      -0.59547299       0.85378015
C        0.14138745      -1.45547962       0.79946280
O        1.07388854      -0.99824286      -0.24213588
C        1.93479013       0.23836036       0.12899075
N        2.86262584       0.69923240      -0.84639907
N        2.01028657       1.00373912       1.43352675
H       -3.15349722       0.87806284      -1.81597090
H       -3.94682717       0.25832066      -0.34830561
H       -2.12020946       2.08164859      -0.48137552
H       -1.75004363      -0.90013230       1.43037522
H       -1.13745379       0.60345882       1.26604569
H        0.54467344      -1.50467825       1.85888696
H       -0.08260192      -2.50741053       0.58326811
H        3.36203027       1.64312530      -1.00069118
H        2.84138513       0.19343802      -1.74124432
H        2.64943004       1.90200520       1.74769163
