17
Properties=species:S:1:pos:R:3 pbc="F F F"
C       -3.55369520       0.34233603       1.20007277
C       -3.11215377      -0.34891707      -0.10762315
N       -1.76384354      -0.53922486      -0.70732576
O       -0.67499340       0.00072768      -0.22586209
C        0.52045465      -0.56831545      -0.71155155
O        1.73308825       0.06843033      -0.16917309
C        2.95248342      -0.15274698      -0.39498994
C        4.24741888       0.45391968       0.31317177
H       -2.39168406      -0.13573605       2.17728925
H       -3.44034195       1.66365194       0.52042764
H       -4.99549532       0.10434216       1.66110253
H       -3.91948676      -0.72801691      -0.53878385
H        0.49017152      -0.56564426      -1.78581858
H        0.58427393      -1.71098864      -0.38345918
H        2.70566511      -0.76571053      -1.32529998
H        4.40841198       1.17467105       1.18094933
H        5.19669724       0.22653161       0.21723562
