16
Properties=species:S:1:pos:R:3 pbc="F F F"
N        2.51729178      -0.04839985      -0.06450843
C        1.73529840      -0.84061813       0.43555781
C        0.20655870      -0.39433622       0.21884124
N       -0.77709347      -1.32828856       0.51072609
O       -2.13515234      -1.11675060       0.30108178
C       -2.50459146       0.04893903      -0.11113358
C       -1.33663738       1.04580736      -0.44369033
C       -0.05063248       0.86202651      -0.32818565
H        2.65189338       0.51105088       0.77167594
H        3.47713709      -0.66905159      -0.18871821
H        1.72107911      -1.60801995      -0.29964945
H        2.13881874      -1.22176874       1.70978224
H       -3.01367998       0.48592913       0.59537160
H       -3.02889061      -0.04935936      -0.90988612
H       -1.44371223       1.92147875      -0.74628478
H        0.79775220       1.80784845      -0.41516593
