13
Properties=species:S:1:pos:R:3 pbc="F F F"
O       -2.08999777       0.77141553      -0.61753821
C       -1.63677394      -0.12470396       0.43568832
C       -0.19157371      -0.50749975       0.15245184
N        0.25833830      -1.75967169      -0.04996130
O        1.52342880      -1.69612205      -0.29364428
C        1.95869935      -0.45951626      -0.21514264
C        0.87101525       0.34982640       0.02481425
O        0.82412928       1.74158561       0.24887596
H       -2.34096384       0.26618984      -1.27898240
H       -2.28104782      -1.03569579       0.47238591
H       -1.66519344       0.40951216       1.45345509
H        3.00125003      -0.11533656      -0.34158581
H        1.66991341       2.28232718       0.20182791
