12
Properties=species:S:1:pos:R:3 pbc="F F F"
N       -1.89143360       0.48113307       0.18431607
C       -0.59778881      -0.20728207      -0.04329235
C       -0.39277613      -1.52318692      -0.13208643
O        0.95649326      -1.78259408      -0.17464447
C        1.65713966      -0.73546201      -0.10615717
C        0.76149905       0.30370533      -0.08423129
C        1.08306932       1.73226380      -0.06087287
N        1.37119496       3.07816410       0.27253374
H       -2.69406986      -0.09490503       0.03863803
H       -1.75975740       1.54399490       0.67767167
H       -1.12599671      -2.33866620       0.02821133
H        2.72898316      -0.68940467       0.06588051
