12
Properties=species:S:1:pos:R:3 pbc="F F F"
O       -2.20617819       0.07431108       0.53840780
C       -1.47916853       0.02567681      -0.26872733
C        0.02380962      -0.01218682      -0.02206694
N        0.78921682      -0.99411041      -0.50332153
C        2.14219332      -0.64117318      -0.19520235
N        2.17628694       0.48248047       0.51008791
C        0.82997012       0.98216259       0.49742332
O        0.40236130       2.06324720       0.83041775
H       -2.30289412      -0.86754346       0.66221613
H       -1.83218181       1.22888863      -0.58454454
H       -1.62850082      -1.27747965      -0.57988989
H        2.97721148      -1.26294804      -0.53123969
