13
Properties=species:S:1:pos:R:3 pbc="F F F"
C        2.33454800       0.48871425       0.03935769
O        2.14050698      -0.85735190      -0.96389937
N        0.82581443      -1.34244275      -0.78978431
C        0.16487962      -0.52254772       0.04185368
O        0.95595545       0.57818282       0.49363863
C       -1.25155473      -0.60409093       0.43648955
C       -2.16476393       0.76915807      -0.26249653
O       -2.12388277      -0.77130961      -0.96577108
H        3.03771305       0.19194999       1.14202893
H        2.52836943       1.68201792      -0.54436636
H       -1.45267498      -1.24870396       1.40026140
H       -1.84715104       1.65551627      -0.99111819
H       -3.07640386       1.12188625       0.40500674
