15
Properties=species:S:1:pos:R:3 pbc="F F F"
C       -0.28568077       1.68333089       0.13182959
C        0.04882171       0.25454369      -0.18960832
N        1.23778439      -0.10982350      -0.99200141
C        2.11723208      -1.21529591      -0.63209897
O        2.08327794      -1.84187341       0.68682551
C       -0.79574233      -0.74338490       0.18142419
C       -2.07089925      -0.49682331       0.97494626
O       -2.86605048      -1.51157224       1.23642933
H       -1.25594139       1.90298939       0.16314554
H        0.04334232       2.24402356      -0.44731322
H        0.00758472       1.98075700       1.02721596
H        1.54153085       0.55453217      -2.12621951
H        2.89464021      -1.51040459      -1.60918510
H       -0.53297949      -1.76921594      -0.14638086
H       -2.36679983       0.47928461       1.45285845
