19
Properties=species:S:1:pos:R:3 pbc="F F F"
C        2.47486186      -0.04759721      -1.07559884
C        1.35223353      -0.00596715       0.06802596
C       -0.04075640      -0.32714719      -0.41898763
N       -1.06422687      -0.50322604       0.64670116
N       -1.19100058      -1.72976661       1.14966822
C       -1.83713150       0.56500196       1.19348359
N       -2.04658079       1.83807158       0.73016900
O       -2.41308331       0.44220278       2.03116703
H        2.63727236      -1.05488813      -1.42134702
H        2.18724465       0.56557941      -1.96878254
H        3.33976340       0.22086337      -0.72444296
H        1.72051823      -0.80469042       1.11960769
H        1.27486229       0.87052959       0.19231471
H       -0.57059878       0.33159277      -1.43801713
H        0.17455772      -1.20491099      -0.57374644
H       -1.45510650      -2.27866340       0.41679356
H       -0.24548574      -2.07124591       1.50471663
H       -1.49466932       1.99967301      -0.12902340
H       -2.61959362       2.52425933       1.08405364
