17
Properties=species:S:1:pos:R:3 pbc="F F F"
C       -1.27042186       1.33866906      -0.91228276
C       -1.07975245      -0.04522296       0.24019642
O       -2.22836447      -0.69296622       0.47952953
C        0.04874293      -1.03449273      -0.06148396
O        0.06891666      -1.56784678      -1.57665217
C        1.52933538      -0.51064587       0.24736410
N        1.78607655       0.81497097       0.78390062
O        3.02802896       1.02889812       1.09169090
H       -0.41270131       1.72759414      -1.15387714
H       -1.30370986       1.32780874      -1.81833518
H       -2.23412848       2.18106699      -0.67628330
H       -0.87364954       0.24126457       1.10390902
H       -2.52898312      -0.85522699      -0.56512702
H       -0.09275380      -1.79922676       0.57771474
H       -0.59933382      -2.17100573      -1.65133953
H        2.31652570      -1.59484315       0.15296508
H        3.27043676       2.17701721       1.42447186
