18
Properties=species:S:1:pos:R:3 pbc="F F F"
C        1.71427727       0.47986847      -1.46769416
C        1.86415672      -0.20010611      -0.14105037
C        0.98761272      -0.43891537       0.95140725
C       -0.33764833      -0.14229020       0.97175002
O       -0.13185814       1.46752512       0.96133626
C       -1.38278341      -0.58534461      -0.00404041
N       -2.22875452       0.32312268      -0.70009589
N       -1.57190275      -1.84503055      -0.22725616
H        1.43233728       0.16196883      -2.36947465
H        2.51217198       0.02066028      -2.06482792
H        1.28547347       1.61463547      -0.83521324
H        2.78891182      -0.39323175      -0.04393286
H        1.21234894      -0.95886767       1.83321643
H       -0.75460118      -0.78780442       1.80782473
H       -1.06000018       1.77042198       1.23233676
H       -3.18654442      -0.10257082      -1.19513798
H       -2.04556465       1.61072493      -0.78149754
H       -1.14580190      -2.65785623       0.35921958
