16
Properties=species:S:1:pos:R:3 pbc="F F F"
N        2.66811299      -0.10886930      -0.55130994
C        1.23899209      -0.43125534      -0.43426865
N        0.72347730      -1.54084492       0.13574252
C        0.33260173       0.49785808      -1.10965502
O        0.79280031       1.48860896      -1.74438798
C       -1.08463609       0.26680702      -0.98745549
C       -1.64506817       0.81552732       0.24148148
C       -1.77632678       0.06926761       1.33532822
H        3.15762520      -0.56441951      -0.29136401
H        3.19556618       0.71293449      -1.19949448
H        1.38820624      -2.18477178       0.36582989
H       -1.70487356       0.82316387      -1.77429926
H       -1.36086452      -0.84569991      -1.24397886
H       -1.92011499       1.85393310       0.40429723
H       -2.08695531       0.57481492       2.25523734
H       -1.67602086      -0.96204257       1.20581532
