17
Properties=species:S:1:pos:R:3 pbc="F F F"
C        2.58792162      -0.09199408      -0.33972710
C        1.10449648       0.29246813      -0.07956536
C        0.27091911      -0.57963824       0.24372847
C       -1.18964386      -0.40346646       0.60536891
N       -2.07609987      -1.34338188       0.13371193
C       -1.59879589       0.97299165      -0.02610451
C       -0.69517839       1.79051936      -0.44626808
O        0.66976488       1.41905451      -0.38664478
H        3.16846824      -1.11813688       0.48295984
H        3.24255919       0.36834443      -0.01497839
H        2.66044760       0.26068595      -1.49711204
H        0.56054550      -1.48635006       0.30811757
H       -1.24271476      -0.43773222       1.82070398
H       -1.63331485      -2.25336123       0.47769040
H       -2.10254669      -1.52610433      -1.01485121
H       -2.67734146       1.28087509      -0.11123720
H       -1.18136191       2.76441479      -0.78101635
