16
Properties=species:S:1:pos:R:3 pbc="F F F"
C       -2.18037701      -0.17717902       0.03061829
C       -0.67059284       0.04227477      -0.04858773
C       -0.06938058       0.97319180      -0.75815660
C        1.31473684       1.09186983      -0.72569418
O        1.88523865       2.05562425      -1.23720372
N        2.08915877       0.14741996      -0.12295250
N        1.47922373      -1.02973008       0.40201819
C        0.14451478      -0.77485442       0.97130251
H       -2.76779413      -0.40073919       1.26651192
H       -2.70293975       0.55663651      -1.16513252
H       -2.16570878      -0.89399862       0.13106614
H       -0.67336297       1.63786840      -1.45912576
H        3.07869697       0.28025791       0.07231921
H        1.40289438      -1.45540893      -0.47898969
H       -0.34523785      -1.69877744       1.29679990
H        0.29107711      -0.32733479       1.92026424
