18
Properties=species:S:1:pos:R:3 pbc="F F F"
C        2.41744161       0.05221634      -0.58247060
C        0.97086990      -0.39245793      -0.74244416
C        0.04997678       0.66083127      -0.20767270
C       -1.33832788       0.08444033       0.02140991
N       -2.26874566       0.90746862       1.16894448
C       -1.40032423      -1.37340808       0.57381082
N       -0.35127649      -2.04069901       0.51155722
O        0.84797800      -1.58188283      -0.03538843
H        2.92999458      -0.15136781       0.53585154
H        2.40170145       1.15588975      -0.82505357
H        2.97695160      -0.62996757      -1.08539271
H        0.52857459      -0.61706150      -1.79477870
H        0.35028964       1.09107447       0.85420978
H       -0.08228023       1.46078289      -0.99143684
H       -1.77838147      -0.08237795      -1.03224635
H       -2.08407450       0.77822667       2.14526176
H       -2.43034196       1.91342151       0.92291963
H       -2.35787463      -1.84410584       1.10547066
