12
Properties=species:S:1:pos:R:3 pbc="F F F"
N       -1.85134828       0.25392139       0.10607262
C       -0.53243631       0.01997724       0.09156482
C        0.42031172       0.88414931      -0.15363289
C        1.74182117       0.47497523      -0.31921819
O        2.62076187       1.30681658      -0.80166405
N        2.10635829      -0.82002181       0.00048543
N        1.15426457      -1.67534781       0.35197657
N       -0.11266653      -1.28699970       0.32829931
H       -2.10700059       1.27967238       0.00831197
H       -2.89286804      -0.28397566      -0.15306190
H        0.11099406       1.86215532      -0.46664682
H       -0.88347644      -1.89211273       1.00350976
