19
Properties=species:S:1:pos:R:3 pbc="F F F"
C       -2.76921654      -0.75065941       0.03249140
N       -1.02959347      -0.70516181       0.14096548
C       -0.33059853       0.57541108      -0.30088440
C        1.17726958       0.43978751      -0.64333212
C        2.06577873      -0.49612275       0.45988825
O        3.36413455      -0.48195124       0.02168888
C       -0.54798734       1.65858042       0.71906245
O        0.31067136       2.22045994       1.19134331
H       -3.06907511      -1.73794484       0.41684037
H       -3.25998282      -0.43437350      -1.30264950
H       -3.56747961      -0.22365262       0.98249161
H       -0.58277708      -1.30795884      -0.55002064
H       -0.71859157       0.86391222      -1.30392361
H        1.07723308      -0.10997735      -1.47193813
H        1.50805688       1.48735845      -1.02456629
H        2.07368708      -0.06466347       1.10882843
H        1.77504647      -1.76014161       0.96356106
H        3.40399528      -1.14157152      -0.47174376
H       -1.49564362       1.94751167       1.11358345
